
/*--------------------------------*- C++ -*----------------------------------*| =========                 |                                                 |
| \      /  F ield         |                                                 |
|  \    /   O peration     |                                                 |
|   \  /    A nd           |                                                 |
|    \/     M anipulation  |                                                 |
\*---------------------------------------------------------------------------*/
FoamFile
{
    version     2.0;
    format      ascii;
    class       dictionary;
    object      blockMeshDict;
}
\*---------------------------------------------------------------------------*/
scale 1;

vertices 
(
    (-2.1275449907342456 0.7317198668608758 0.0) // point id 0
    (-2.019786958003796 -0.9877902860520232 0.0) // point id 1
    (-0.7325115170129406 -2.080402352938866 0.0) // point id 2
    (0.9587114184091123 -2.012775863053664 0.0) // point id 3
    (2.114282115869633 -0.7696175248224447 0.0) // point id 4
    (1.9945471553488747 0.9020043468722374 0.0) // point id 5
    (0.75622639687764 2.0558760328557923 0.0) // point id 6
    (-0.904543223375574 2.0541878977849777 0.0) // point id 7
    (-2.082660528251463 0.850640221211549 0.0) // point id 8
    (-3.1041139648776084 -0.19100698855768472 0.0) // point id 9
    (-2.815685511709638 -1.3721492122649686 0.0) // point id 10
    (-1.0159585988660647 -2.9242938386988166 0.0) // point id 11
    (1.3380513967403493 -2.8127828497484804 0.0) // point id 12
    (2.958813319061493 -1.0304826875641868 0.0) // point id 13
    (2.789494125009884 1.294847231273562 0.0) // point id 14
    (1.0903705896820723 2.8788483763366854 0.0) // point id 15
    (-1.2267311316669067 2.8774261836931316 0.0) // point id 16
    (-2.2494833966712946 2.1638967759149335 0.0) // point id 17
    (-11.055265629395743 -0.5262333327982063 0.0) // point id 18
    (-9.906901980119608 -4.951124960429198 0.0) // point id 19
    (-3.67348993846237 -10.427824922286668 0.0) // point id 20
    (4.598952289700867 -10.05810155851955 0.0) // point id 21
    (10.413714671447382 -3.790727698989586 0.0) // point id 22
    (9.965150168657233 4.748797222685369 0.0) // point id 23
    (3.988119776186041 10.307384663257588 0.0) // point id 24
    (-4.2917212920107275 10.200389326468354 0.0) // point id 25
    (-8.045416511473888 7.6058695226370565 0.0) // point id 26
    (-2.236141888520479 0.7248939369030601 3.4482758620689653) // point id 27
    (-2.0359734953326494 -0.9447031729980628 3.4482758620689653) // point id 28
    (-0.7312461394365795 -1.9694812280810905 3.4482758620689653) // point id 29
    (0.9314068977674718 -1.896780828425995 3.4482758620689653) // point id 30
    (2.057086205909146 -0.6766263793044595 3.4482758620689653) // point id 31
    (1.8557635394459164 0.9480803205873795 3.4482758620689653) // point id 32
    (0.6071708025714121 2.0557509890494265 3.4482758620689653) // point id 33
    (-1.038143874065574 2.017834947807581 3.4482758620689653) // point id 34
    (-2.195723413620392 0.8404539654610128 3.4482758620689653) // point id 35
    (-3.172889134243143 -0.24383573044982892 3.4482758620689653) // point id 36
    (-2.810767487029051 -1.3871962848615833 3.4482758620689653) // point id 37
    (-0.9947271093348521 -2.8234136648250145 3.4482758620689653) // point id 38
    (1.2970093813976833 -2.705539296491055 3.4482758620689653) // point id 39
    (2.9111702486232867 -0.9164775888999928 3.4482758620689653) // point id 40
    (2.6424817169235832 1.3612774662961082 3.4482758620689653) // point id 41
    (0.9247548254486643 2.8940844360954125 3.4482758620689653) // point id 42
    (-1.3816060853221963 2.837754431795547 3.4482758620689653) // point id 43
    (-2.391805120027587 2.131244787754498 3.4482758620689653) // point id 44
    (-11.141545568354333 -0.8764640216420431 3.4482758620689653) // point id 45
    (-9.792548230458765 -5.240310570842389 3.4482758620689653) // point id 46
    (-3.4779491349585796 -10.419972308518346 3.4482758620689653) // point id 47
    (4.656179208223384 -9.939630320683298 3.4482758620689653) // point id 48
    (10.45850975514099 -3.5033961322438048 3.4482758620689653) // point id 49
    (9.688469461189559 5.122138228512538 3.4482758620689653) // point id 50
    (3.6411603108796324 10.394645856356751 3.4482758620689653) // point id 51
    (-4.510572392896639 10.170142716398766 3.4482758620689653) // point id 52
    (-8.24498678118836 7.552319616962128 3.4482758620689653) // point id 53
    (-2.4095507324202186 0.7508912817005913 6.896551724137931) // point id 54
    (-1.9939106266168598 -0.7904933302268886 6.896551724137931) // point id 55
    (-0.7012931121392957 -1.7311859646675538 6.896551724137931) // point id 56
    (0.9000878344950707 -1.7040224005204014 6.896551724137931) // point id 57
    (1.9917890257599231 -0.5593085620070661 6.896551724137931) // point id 58
    (1.7013336257915843 0.9831458516135254 6.896551724137931) // point id 59
    (0.41501098783489215 1.9558863885573197 6.896551724137931) // point id 60
    (-1.186573242268658 1.901747545057527 6.896551724137931) // point id 61
    (-2.3740946546776427 0.8611573684384597 6.896551724137931) // point id 62
    (-3.273357137214443 -0.20699816050055117 6.896551724137931) // point id 63
    (-2.7512504394638504 -1.2953632446286054 6.896551724137931) // point id 64
    (-0.9777420609261732 -2.590684901923612 6.896551724137931) // point id 65
    (1.2655930325398155 -2.5266473326953194 6.896551724137931) // point id 66
    (2.864476668844641 -0.772179834781781 6.896551724137931) // point id 67
    (2.4633573151997097 1.4579804165683807 6.896551724137931) // point id 68
    (0.7073759495750132 2.8081582515924994 6.896551724137931) // point id 69
    (-1.5208093332884611 2.734943920389308 6.896551724137931) // point id 70
    (-2.5852896102738394 2.09914464560722 6.896551724137931) // point id 71
    (-11.282867036836029 -1.327325360151649 6.896551724137931) // point id 72
    (-9.36611814167549 -5.927134520307478 6.896551724137931) // point id 73
    (-3.397433888679338 -10.314372124276575 6.896551724137931) // point id 74
    (4.50556699585542 -9.922673476228901 6.896551724137931) // point id 75
    (10.569402111875071 -3.196759294513763 6.896551724137931) // point id 76
    (9.299651288270299 5.764499595615982 6.896551724137931) // point id 77
    (3.131168777639571 10.505678503415533 6.896551724137931) // point id 78
    (-4.3951895358567805 10.276350296692314 6.896551724137931) // point id 79
    (-8.458297240380105 7.643141686985916 6.896551724137931) // point id 80
    (-2.6450142082714128 0.7692292932258773 10.344827586206897) // point id 81
    (-1.9357654778306668 -0.6004804491440189 10.344827586206897) // point id 82
    (-0.6711338637078405 -1.4794862687917403 10.344827586206897) // point id 83
    (0.8680630916238383 -1.5072052447917774 10.344827586206897) // point id 84
    (1.9202879168710925 -0.4240693261894201 10.344827586206897) // point id 85
    (1.5550410144739655 1.0378053478123812 10.344827586206897) // point id 86
    (0.22732008848405028 1.8459605109953083 10.344827586206897) // point id 87
    (-1.32462179936993 1.7761023143174135 10.344827586206897) // point id 88
    (-2.5975527757975128 0.9306600831420568 10.344827586206897) // point id 89
    (-3.3427461860726164 -0.1930559482707022 10.344827586206897) // point id 90
    (-2.644599983894917 -1.1984527331908574 10.344827586206897) // point id 91
    (-0.948095146820708 -2.3669140322254787 10.344827586206897) // point id 92
    (1.229772788525614 -2.3590061326644727 10.344827586206897) // point id 93
    (2.8297157067790684 -0.5813671872615819 10.344827586206897) // point id 94
    (2.3002236871777657 1.5788934428535053 10.344827586206897) // point id 95
    (0.45692877260921816 2.7379076300272955 10.344827586206897) // point id 96
    (-1.600959828956506 2.6545438942133552 10.344827586206897) // point id 97
    (-2.7683704011616292 2.0961059728975626 10.344827586206897) // point id 98
    (-11.503455237727902 -1.943754001023228 10.344827586206897) // point id 99
    (-8.82584605367381 -6.712556475837063 10.344827586206897) // point id 100
    (-3.4649051592154128 -10.275278703683727 10.344827586206897) // point id 101
    (4.296599883413985 -10.053144213910619 10.344827586206897) // point id 102
    (10.796540901174977 -2.868401183116826 10.344827586206897) // point id 103
    (8.959109413592765 6.513312719655493 10.344827586206897) // point id 104
    (2.475081120323414 10.776946931619808 10.344827586206897) // point id 105
    (-4.092930717880676 10.558950697422752 10.344827586206897) // point id 106
    (-8.704191590862456 7.892972214941359 10.344827586206897) // point id 107
    (-2.9016746038239978 0.8127289420665826 13.793103448275861) // point id 108
    (-1.9077507600211112 -0.346191586102225 13.793103448275861) // point id 109
    (-0.673192695538871 -1.1930331376343708 13.793103448275861) // point id 110
    (0.815720508305827 -1.298601104410305 13.793103448275861) // point id 111
    (1.8481017585052992 -0.28129434105861445 13.793103448275861) // point id 112
    (1.4094028511308314 1.1043008138558148 13.793103448275861) // point id 113
    (0.033670955909600425 1.726607604872438 13.793103448275861) // point id 114
    (-1.4722958074907289 1.6109464702530694 13.793103448275861) // point id 115
    (-2.8424883148231856 0.991777126278365 13.793103448275861) // point id 116
    (-3.434332809061767 -0.09092315674155738 13.793103448275861) // point id 117
    (-2.5637052481572953 -1.0425055612788634 13.793103448275861) // point id 118
    (-0.9851185966658436 -2.104788608775165 13.793103448275861) // point id 119
    (1.1376136931059904 -2.201470581223417 13.793103448275861) // point id 120
    (2.7846040347325327 -0.4720673586329756 13.793103448275861) // point id 121
    (2.108137893098923 1.7618088667830247 13.793103448275861) // point id 122
    (0.21794425785810387 2.667549707926513 13.793103448275861) // point id 123
    (-1.7190676811096268 2.534497694942893 13.793103448275861) // point id 124
    (-2.9250199253082028 2.0876402243405985 13.793103448275861) // point id 125
    (-11.925778359237025 -2.317837315383827 13.793103448275861) // point id 126
    (-8.270697184779536 -7.471597374855655 13.793103448275861) // point id 127
    (-3.8671235338351866 -10.21653110422689 13.793103448275861) // point id 128
    (4.09738740577659 -10.284821094126176 13.793103448275861) // point id 129
    (10.974448978310267 -3.121823549521306 13.793103448275861) // point id 130
    (8.473861280142065 7.544267525263352 13.793103448275861) // point id 131
    (1.6766521674709978 11.13635433037219 13.793103448275861) // point id 132
    (-3.7941476596168324 10.88212820958958 13.793103448275861) // point id 133
    (-8.839173942408891 8.425075352907127 13.793103448275861) // point id 134
    (-3.1627787273850276 0.8559187159680997 17.24137931034483) // point id 135
    (-1.964275985284994 -0.03809886787553032 17.24137931034483) // point id 136
    (-0.7197732291841602 -0.8666510763456301 17.24137931034483) // point id 137
    (0.7355057881676754 -1.067530324515992 17.24137931034483) // point id 138
    (1.7816298384240326 -0.13443384298748434 17.24137931034483) // point id 139
    (1.215125225226398 1.1716937883446503 17.24137931034483) // point id 140
    (-0.2316720575738403 1.5780579834808879 17.24137931034483) // point id 141
    (-1.7161362176008188 1.4059437823934737 17.24137931034483) // point id 142
    (-3.141813458544116 0.9553736437803797 17.24137931034483) // point id 143
    (-3.556151000598041 -0.056173392275856104 17.24137931034483) // point id 144
    (-2.544838858610599 -0.8449007382180845 17.24137931034483) // point id 145
    (-1.0705960577769846 -1.8008586953276233 17.24137931034483) // point id 146
    (1.0072210816765752 -2.0247009958783604 17.24137931034483) // point id 147
    (2.7663938144228593 -0.26415703323949896 17.24137931034483) // point id 148
    (1.8497978156016421 1.9391131160433228 17.24137931034483) // point id 149
    (-0.1575747111056715 2.5696227407572123 17.24137931034483) // point id 150
    (-1.9085545336675975 2.3800755320702938 17.24137931034483) // point id 151
    (-3.21448024711199 2.001144337519673 17.24137931034483) // point id 152
    (-12.143128822950384 -3.359290292992376 17.24137931034483) // point id 153
    (-7.7499238719864945 -8.121932563910143 17.24137931034483) // point id 154
    (-4.2824400590084775 -10.14504053814152 17.24137931034483) // point id 155
    (3.472154567095423 -10.618386204491873 17.24137931034483) // point id 156
    (11.51563708550271 -2.047796034404458 17.24137931034483) // point id 157
    (7.7074668859274515 8.681810032894925 17.24137931034483) // point id 158
    (0.6032947092176499 11.47381022178337 17.24137931034483) // point id 159
    (-3.8442717700128606 11.10553893459468 17.24137931034483) // point id 160
    (-9.731729401383257 8.368704548501604 17.24137931034483) // point id 161
    (-3.402208480347925 0.826501919734194 20.689655172413794) // point id 162
    (-2.070934557709262 0.1632142669538319 20.689655172413794) // point id 163
    (-0.78982710597151 -0.6073474465086429 20.689655172413794) // point id 164
    (0.6344409558426835 -0.8691788870379578 20.689655172413794) // point id 165
    (1.7220412312002982 0.009175466805387833 20.689655172413794) // point id 166
    (1.0128325646068628 1.1987198840795072 20.689655172413794) // point id 167
    (-0.4611318363345075 1.4521322990857919 20.689655172413794) // point id 168
    (-1.9354600998183429 1.2528450996076885 20.689655172413794) // point id 169
    (-3.386332470506786 0.9204798949010106 20.689655172413794) // point id 170
    (-3.769033190377248 -0.1321811303969451 20.689655172413794) // point id 171
    (-2.5566206702684715 -0.7495658009351 20.689655172413794) // point id 172
    (-1.1526998301641123 -1.5724645977947433 20.689655172413794) // point id 173
    (0.901470714858106 -1.8631377600422128 20.689655172413794) // point id 174
    (2.7436522949645274 -0.09715217239671123 20.689655172413794) // point id 175
    (1.59978114922513 2.0707232746697755 20.689655172413794) // point id 176
    (-0.4133426149672536 2.480582394968157 20.689655172413794) // point id 177
    (-2.1041204687951556 2.2661236768715343 20.689655172413794) // point id 178
    (-3.4792493402968407 1.958918609635082 20.689655172413794) // point id 179
    (-12.312156071265472 -4.275307095106091 20.689655172413794) // point id 180
    (-7.092684962947824 -8.846887616141627 20.689655172413794) // point id 181
    (-4.510707796594865 -10.190167122147978 20.689655172413794) // point id 182
    (3.0092943526786278 -10.8683152407066 20.689655172413794) // point id 183
    (11.857755432556498 -1.5700773344560663 20.689655172413794) // point id 184
    (6.698427212528777 9.785987290815985 20.689655172413794) // point id 185
    (-0.30430766117926067 11.72505943183129 20.689655172413794) // point id 186
    (-3.808328111225884 11.352017579066384 20.689655172413794) // point id 187
    (-10.19850520616043 8.604184131153211 20.689655172413794) // point id 188
    (-3.587162695956004 0.7749220516442241 24.137931034482758) // point id 189
    (-2.177938733654262 0.31656437117456104 24.137931034482758) // point id 190
    (-0.8854938364948312 -0.373661176859732 24.137931034482758) // point id 191
    (0.5526032876870037 -0.6798138141063769 24.137931034482758) // point id 192
    (1.668376772239844 0.12408242281283452 24.137931034482758) // point id 193
    (0.8229349690359002 1.181088491006294 24.137931034482758) // point id 194
    (-0.6583876278378853 1.2970440848321798 24.137931034482758) // point id 195
    (-2.121473060920345 1.097363688111279 24.137931034482758) // point id 196
    (-3.577458649042282 0.8489948706597847 24.137931034482758) // point id 197
    (-3.9198105967288757 -0.2223487467258946 24.137931034482758) // point id 198
    (-2.5873961404156343 -0.6623644629864751 24.137931034482758) // point id 199
    (-1.238504038705698 -1.367783142002941 24.137931034482758) // point id 200
    (0.7469367010296911 -1.7135238590409114 24.137931034482758) // point id 201
    (2.7156999621027977 0.03967832354247583 24.137931034482758) // point id 202
    (1.3087381931288107 2.130077662790012 24.137931034482758) // point id 203
    (-0.6665018282962489 2.354438480407533 24.137931034482758) // point id 204
    (-2.2872676677064905 2.136022512334337 24.137931034482758) // point id 205
    (-3.6800294761241608 1.8992057013721826 24.137931034482758) // point id 206
    (-12.359685509227749 -5.013698344168252 24.137931034482758) // point id 207
    (-6.2986578114697185 -9.43190506679139 24.137931034482758) // point id 208
    (-4.454779529673333 -10.282404045107919 24.137931034482758) // point id 209
    (2.6050287970481762 -10.996934230793267 24.137931034482758) // point id 210
    (12.093394012067897 -1.1209939504956836 24.137931034482758) // point id 211
    (5.52623801299389 10.623054500248697 24.137931034482758) // point id 212
    (-1.0163827719357907 11.817132248216245 24.137931034482758) // point id 213
    (-3.6536595389734794 11.503837953173674 24.137931034482758) // point id 214
    (-10.617198554765102 8.65061094075861 24.137931034482758) // point id 215
    (-3.6952832356996153 0.7155857722408263 27.586206896551722) // point id 216
    (-2.2667248123583192 0.35378749561258255 27.586206896551722) // point id 217
    (-0.9563025930686839 -0.2854500438302119 27.586206896551722) // point id 218
    (0.480663851292393 -0.576759968827195 27.586206896551722) // point id 219
    (1.6175217389701357 0.18697701359100344 27.586206896551722) // point id 220
    (0.6877790606254771 1.160885211727904 27.586206896551722) // point id 221
    (-0.787852981034526 1.2310147053421177 27.586206896551722) // point id 222
    (-2.240615911891109 1.0342575391561937 27.586206896551722) // point id 223
    (-3.6870206101998315 0.7929096702941438 27.586206896551722) // point id 224
    (-3.9864255318161352 -0.30523608754009446 27.586206896551722) // point id 225
    (-2.6296393390189245 -0.656961259809935 27.586206896551722) // point id 226
    (-1.289809205306395 -1.2968809200287081 27.586206896551722) // point id 227
    (0.6652474620317537 -1.6249528277870058 27.586206896551722) // point id 228
    (2.6770093166369664 0.12430077167005762 27.586206896551722) // point id 229
    (1.1243922569281681 2.135778494108459 27.586206896551722) // point id 230
    (-0.8201043046326295 2.296331794472438 27.586206896551722) // point id 231
    (-2.403696619348721 2.084418884964041 27.586206896551722) // point id 232
    (-3.8334577519435706 1.846308701263826 27.586206896551722) // point id 233
    (-12.3343341037065 -5.453013044382531 27.586206896551722) // point id 234
    (-5.915223354336169 -9.711270686421067 27.586206896551722) // point id 235
    (-4.318324711933434 -10.381574229384276 27.586206896551722) // point id 236
    (2.3462706463920022 -11.032298018581509 27.586206896551722) // point id 237
    (12.175037600411512 -0.8195874119843052 27.586206896551722) // point id 238
    (4.932018943010922 10.924148033805922 27.586206896551722) // point id 239
    (-1.2412927528926208 11.855965063681976 27.586206896551722) // point id 240
    (-3.8981886452094887 11.531620715023237 27.586206896551722) // point id 241
    (-10.886348705877417 8.59675765100175 27.586206896551722) // point id 242
    (-3.70600549623308 0.6722551947961417 31.03448275862069) // point id 243
    (-2.2961535184952666 0.3698416006606169 31.03448275862069) // point id 244
    (-1.0037713407800695 -0.2417499309627386 31.03448275862069) // point id 245
    (0.40776342313360675 -0.5189577795964042 31.03448275862069) // point id 246
    (1.5523391745225064 0.19285041895542193 31.03448275862069) // point id 247
    (0.5873036110850294 1.1058582432314399 31.03448275862069) // point id 248
    (-0.8588869499882161 1.1646090351966158 31.03448275862069) // point id 249
    (-2.2810982873082883 0.9858055618969697 31.03448275862069) // point id 250
    (-3.6971733039724612 0.7608612935768384 31.03448275862069) // point id 251
    (-3.9960650690745925 -0.33806799144544364 31.03448275862069) // point id 252
    (-2.6516576373956164 -0.6297040220923309 31.03448275862069) // point id 253
    (-1.327052068849187 -1.243977370860044 31.03448275862069) // point id 254
    (0.5984914079009758 -1.5605258185425677 31.03448275862069) // point id 255
    (2.60132516649994 0.13790450643986435 31.03448275862069) // point id 256
    (0.9773082053781419 2.083822799427787 31.03448275862069) // point id 257
    (-0.9036106255642666 2.2167258778969954 31.03448275862069) // point id 258
    (-2.4265554825680655 2.027514257363011 31.03448275862069) // point id 259
    (-3.8343925872903393 1.8041136495396772 31.03448275862069) // point id 260
    (-12.127046939958582 -5.608608877766786 31.03448275862069) // point id 261
    (-5.695339018223425 -9.673613961163605 31.03448275862069) // point id 262
    (-4.2533004542875625 -10.25770644743581 31.03448275862069) // point id 263
    (2.1844601084328734 -10.889279124305366 31.03448275862069) // point id 264
    (12.00660791038034 -0.7272700075552511 31.03448275862069) // point id 265
    (4.574395330521124 10.848498804138103 31.03448275862069) // point id 266
    (-1.2321748674007036 11.683539254207174 31.03448275862069) // point id 267
    (-3.706068210124945 11.407179693499739 31.03448275862069) // point id 268
    (-10.780409860673457 8.522603093065044 31.03448275862069) // point id 269
    (-3.635490549793577 0.615540546037648 34.48275862068966) // point id 270
    (-2.2806770007819024 0.3600851447727875 34.48275862068966) // point id 271
    (-1.0107073780783957 -0.21169780301403218 34.48275862068966) // point id 272
    (0.34430885256716937 -0.4734334587757908 34.48275862068966) // point id 273
    (1.4761180484671912 0.1732285300069851 34.48275862068966) // point id 274
    (0.5010230322165986 1.0152861641854245 34.48275862068966) // point id 275
    (-0.8930712591282739 1.0669064686645737 34.48275862068966) // point id 276
    (-2.2626291094011997 0.9109371045762857 34.48275862068966) // point id 277
    (-3.626590415320512 0.7085309818301252 34.48275862068966) // point id 278
    (-3.921730196277534 -0.36549877891444515 34.48275862068966) // point id 279
    (-2.5839264245123132 -0.6202596258232823 34.48275862068966) // point id 280
    (-1.3289851775489094 -1.1838876074359823 34.48275862068966) // point id 281
    (0.4979338738128454 -1.4876114387767594 34.48275862068966) // point id 282
    (2.49640666941606 0.12337027961505687 34.48275862068966) // point id 283
    (0.8442259004571335 1.9783835014576507 34.48275862068966) // point id 284
    (-0.9081111958169359 2.091168419692601 34.48275862068966) // point id 285
    (-2.3818187154868316 1.9266554238438407 34.48275862068966) // point id 286
    (-3.7792327108706356 1.719145728497432 34.48275862068966) // point id 287
    (-11.803833787227937 -5.513334834099472 34.48275862068966) // point id 288
    (-5.399764441786033 -9.460254178094878 34.48275862068966) // point id 289
    (-4.1339260260714505 -9.95527273744042 34.48275862068966) // point id 290
    (1.9685361709167035 -10.573926535561483 34.48275862068966) // point id 291
    (11.660077233407034 -0.6806792551211686 34.48275862068966) // point id 292
    (4.058690904280408 10.601115425994676 34.48275862068966) // point id 293
    (-1.2988975102067546 11.289954688729845 34.48275862068966) // point id 294
    (-3.552054610744888 11.053831342757894 34.48275862068966) // point id 295
    (-10.554311863158834 8.21385038651931 34.48275862068966) // point id 296
    (-3.5159336829338486 0.5492623554776395 37.93103448275862) // point id 297
    (-2.2178351473367797 0.3231871375882508 37.93103448275862) // point id 298
    (-0.9960854844599591 -0.20694802235324683 37.93103448275862) // point id 299
    (0.3007768132781702 -0.45442645025162054 37.93103448275862) // point id 300
    (1.3990154890054214 0.13704529063748697 37.93103448275862) // point id 301
    (0.4396307146303302 0.9131326534973606 37.93103448275862) // point id 302
    (-0.8931081667017583 0.9649975708074712 37.93103448275862) // point id 303
    (-2.2026332571473293 0.8197908502175191 37.93103448275862) // point id 304
    (-3.5078683790736687 0.6361835244736995 37.93103448275862) // point id 305
    (-3.7936338743784104 -0.393600418304755 37.93103448275862) // point id 306
    (-2.508508123692085 -0.6161173640039803 37.93103448275862) // point id 307
    (-1.3005282240029576 -1.1420728570885081 37.93103448275862) // point id 308
    (0.41650161201096986 -1.430953541046662 37.93103448275862) // point id 309
    (2.379994672721087 0.09220187220893303 37.93103448275862) // point id 310
    (0.7707787028200996 1.845630484608007 37.93103448275862) // point id 311
    (-0.9090428971535385 1.949281803360103 37.93103448275862) // point id 312
    (-2.320740259648194 1.7960279182820083 37.93103448275862) // point id 313
    (-3.6602863979492875 1.60646261084495 37.93103448275862) // point id 314
    (-11.26884228553453 -5.476560601036883 37.93103448275862) // point id 315
    (-5.055713523376307 -9.16983178499517 37.93103448275862) // point id 316
    (-3.971156636449703 -9.583029832076983 37.93103448275862) // point id 317
    (1.7488386523896877 -10.177987548353851 37.93103448275862) // point id 318
    (11.191990381138728 -0.6547252659420834 37.93103448275862) // point id 319
    (3.839293221720181 10.140882861696982 37.93103448275862) // point id 320
    (-1.1641865118889339 10.799396813160202 37.93103448275862) // point id 321
    (-3.473739016995003 10.567999504912184 37.93103448275862) // point id 322
    (-10.191770315498868 7.829358825847683 37.93103448275862) // point id 323
    (-3.380867472832384 0.4766486825346508 41.37931034482759) // point id 324
    (-2.1434941178546176 0.2791224463402617 41.37931034482759) // point id 325
    (-0.9771712349159449 -0.2121031205800099 41.37931034482759) // point id 326
    (0.2559537080188243 -0.44419312956301066 41.37931034482759) // point id 327
    (1.3305169656590268 0.09157688021066489 41.37931034482759) // point id 328
    (0.3940694743960201 0.8096433851870479 41.37931034482759) // point id 329
    (-0.8778801500753217 0.859550325810718 41.37931034482759) // point id 330
    (-2.127739302690158 0.7208783253023824 41.37931034482759) // point id 331
    (-3.374223488753783 0.5507510049341899 41.37931034482759) // point id 332
    (-3.617760790655534 -0.43435504873428854 41.37931034482759) // point id 333
    (-2.3874163433881415 -0.6322030179539988 41.37931034482759) // point id 334
    (-1.259148211645834 -1.111752472962059 41.37931034482759) // point id 335
    (0.38185044557644937 -1.378920497001371 41.37931034482759) // point id 336
    (2.270443052863423 0.05182093764864976 41.37931034482759) // point id 337
    (0.7128015135383887 1.7049212838920258 41.37931034482759) // point id 338
    (-0.8914652437977615 1.8031119078239126 41.37931034482759) // point id 339
    (-2.2393862694307987 1.6568204105653976 41.37931034482759) // point id 340
    (-3.5191240336250806 1.4809046813610556 41.37931034482759) // point id 341
    (-10.79860355740689 -5.3176719634085465 41.37931034482759) // point id 342
    (-4.705799235818304 -8.872665810605444 41.37931034482759) // point id 343
    (-3.6623201882743324 -9.255790653840993 41.37931034482759) // point id 344
    (1.5490763302628134 -9.779684651574017 41.37931034482759) // point id 345
    (10.712826315438903 -0.6388318257046248 41.37931034482759) // point id 346
    (3.5011335593682626 9.710763731479844 41.37931034482759) // point id 347
    (-1.1612005154043183 10.285043732862375 41.37931034482759) // point id 348
    (-3.2352011536349066 10.080528255007332 41.37931034482759) // point id 349
    (-9.698781837371401 7.523022649063543 41.37931034482759) // point id 350
    (-3.2432037544861685 0.38818974059740796 44.827586206896555) // point id 351
    (-2.060995302791049 0.2114881682991045 44.827586206896555) // point id 352
    (-0.9422818276748839 -0.23925665313036176 44.827586206896555) // point id 353
    (0.23545002650140728 -0.45456218872073506 44.827586206896555) // point id 354
    (1.271950081053201 0.03179109100783281 44.827586206896555) // point id 355
    (0.35955669625815334 0.696086032348427 44.827586206896555) // point id 356
    (-0.854836179854774 0.742943169278027 44.827586206896555) // point id 357
    (-2.047858821737593 0.6073001715043114 44.827586206896555) // point id 358
    (-3.238213359753256 0.446592119487771 44.827586206896555) // point id 359
    (-3.4715240207833897 -0.48444274457297964 44.827586206896555) // point id 360
    (-2.2942913426871687 -0.6617514897079269 44.827586206896555) // point id 361
    (-1.1810034366788258 -1.111918100357154 44.827586206896555) // point id 362
    (0.3280290600701438 -1.3528375362490532 44.827586206896555) // point id 363
    (2.1739870713390457 -0.002184527933536415 44.827586206896555) // point id 364
    (0.6358347238182058 1.5608537395165114 44.827586206896555) // point id 365
    (-0.8653276210430229 1.6474039772825273 44.827586206896555) // point id 366
    (-2.151595417171252 1.5047039347475568 44.827586206896555) // point id 367
    (-3.3733269780791386 1.3385437502706692 44.827586206896555) // point id 368
    (-10.333627539126068 -5.190443997885147 44.827586206896555) // point id 369
    (-4.482347670810441 -8.554732917688199 44.827586206896555) // point id 370
    (-3.480636867631979 -8.914402965332316 44.827586206896555) // point id 371
    (1.380556906288668 -9.414168151099155 44.827586206896555) // point id 372
    (10.270093026304002 -0.630909041644712 44.827586206896555) // point id 373
    (3.1842995394270592 9.282886854367337 44.827586206896555) // point id 374
    (-1.1563824702247347 9.773957656606562 44.827586206896555) // point id 375